@<TRIPOS>MOLECULE
TCS
   24    25     1     0     0
SMALL
bcc


@<TRIPOS>ATOM
      1 C5         13.1790    9.9050   22.6170 ca        1 TCS     -0.003900
      2 C6         14.3080   10.6890   22.0430 ca        1 TCS      0.143100
      3 C1         15.5830   10.1370   22.0290 ca        1 TCS     -0.149000
      4 C2         15.7830    8.8620   22.5500 ca        1 TCS      0.046400
      5 C3         14.7270    8.1210   23.0910 ca        1 TCS     -0.150000
      6 C4         13.4240    8.6330   23.1330 ca        1 TCS     -0.099000
      7 O7         11.9200   10.4380   22.6480 os        1 TCS     -0.245200
      8 O17        14.0880   11.9240   21.5270 oh        1 TCS     -0.485100
      9 C8         11.0210   10.3200   21.6230 ca        1 TCS      0.111100
     10 C9          9.6510   10.8580   21.8170 ca        1 TCS      0.004400
     11 C10         8.7170   10.7520   20.7930 ca        1 TCS     -0.101000
     12 C11         9.0850   10.1420   19.5990 ca        1 TCS      0.001400
     13 C12        10.3750    9.6390   19.4140 ca        1 TCS     -0.096000
     14 C13        11.3440    9.7200   20.4110 ca        1 TCS     -0.163000
     15 CL16        9.2190   11.6370   23.3690 cl        1 TCS     -0.057400
     16 CL15        7.8820   10.0100   18.2740 cl        1 TCS     -0.079400
     17 CL14       17.4290    8.1710   22.5330 cl        1 TCS     -0.080400
     18 H18        16.4190   10.6960   21.5800 ha        1 TCS      0.171000
     19 H19        14.9930    7.1850   23.6090 ha        1 TCS      0.155000
     20 H20        12.6250    8.0170   23.5750 ha        1 TCS      0.156000
     21 H21        13.1320   12.0840   21.6140 ho        1 TCS      0.441000
     22 H22         7.7110   11.1820   20.9180 ha        1 TCS      0.166000
     23 H23        10.5400    9.0760   18.4830 ha        1 TCS      0.156000
     24 H24        12.3450    9.3070   20.2160 ha        1 TCS      0.159000
@<TRIPOS>BOND
     1    1    2 ar  
     2    1    6 ar  
     3    1    7 1   
     4    2    3 ar  
     5    2    8 1   
     6    3    4 ar  
     7    3   18 1   
     8    4    5 ar  
     9    4   17 1   
    10    5    6 ar  
    11    5   19 1   
    12    6   20 1   
    13    7    9 1   
    14    8   21 1   
    15    9   10 ar  
    16    9   14 ar  
    17   10   11 ar  
    18   10   15 1   
    19   11   12 ar  
    20   11   22 1   
    21   12   13 ar  
    22   12   16 1   
    23   13   14 ar  
    24   13   23 1   
    25   14   24 1   
@<TRIPOS>SUBSTRUCTURE
     1 TCS         1 TEMP              0 ****  ****    0 ROOT
