@<TRIPOS>MOLECULE
Cpptraj Generated mol2 file.
   24    25     1     0     0
SMALL
USER_CHARGES


@<TRIPOS>ATOM
      1 C3         15.5830   10.1370   22.0290 ca         1 TCS     -0.149000
      2 C4         15.7830    8.8620   22.5500 ca         1 TCS      0.046400
      3 C2         14.3080   10.6890   22.0430 ca         1 TCS      0.143100
      4 C1         13.1790    9.9050   22.6170 ca         1 TCS     -0.003900
      5 C6         13.4240    8.6330   23.1330 ca         1 TCS     -0.099000
      6 C5         14.7270    8.1210   23.0910 ca         1 TCS     -0.150000
      7 C10         9.0850   10.1420   19.5990 ca         1 TCS      0.001400
      8 C9          8.7170   10.7520   20.7930 ca         1 TCS     -0.101000
      9 C8          9.6510   10.8580   21.8170 ca         1 TCS      0.004400
     10 C7         11.0210   10.3200   21.6230 ca         1 TCS      0.111100
     11 C11        10.3750    9.6390   19.4140 ca         1 TCS     -0.096000
     12 C12        11.3440    9.7200   20.4110 ca         1 TCS     -0.163000
     13 O1         11.9200   10.4380   22.6480 os         1 TCS     -0.245200
     14 CL1        17.4290    8.1710   22.5330 cl         1 TCS     -0.080400
     15 CL3         7.8820   10.0100   18.2740 cl         1 TCS     -0.079400
     16 CL2         9.2190   11.6370   23.3690 cl         1 TCS     -0.057400
     17 O2         14.0880   11.9240   21.5270 oh         1 TCS     -0.485100
     18 H18        16.4190   10.6960   21.5800 ha         1 TCS      0.171000
     19 H19        14.9930    7.1850   23.6090 ha         1 TCS      0.155000
     20 H20        12.6250    8.0170   23.5750 ha         1 TCS      0.156000
     21 H21        13.1320   12.0840   21.6140 ho         1 TCS      0.441000
     22 H22         7.7110   11.1820   20.9180 ha         1 TCS      0.166000
     23 H23        10.5400    9.0760   18.4830 ha         1 TCS      0.156000
     24 H24        12.3450    9.3070   20.2160 ha         1 TCS      0.159000
@<TRIPOS>BOND
    1     4     3 1
    2     4     5 1
    3     4    13 1
    4     3     1 1
    5     3    17 1
    6     1     2 1
    7     2     6 1
    8     2    14 1
    9     6     5 1
   10    13    10 1
   11    10     9 1
   12    10    12 1
   13     9     8 1
   14     9    16 1
   15     8     7 1
   16     7    11 1
   17     7    15 1
   18    11    12 1
   19     1    18 1
   20     6    19 1
   21     5    20 1
   22    17    21 1
   23     8    22 1
   24    11    23 1
   25    12    24 1
@<TRIPOS>SUBSTRUCTURE
      1 TCS               1 ****               0 ****  **** 
